ARB_GBA01F3_2019/PVSystems_0.1.dss
New PVSystem.PV0 phases=3 Bus1=94133bf42166.1.2.3.0 kV=0.22 kVA=7.8 Pmpp=7.8 conn=wye PF = 1 %cutin = 0.00005 %cutout = 0.00005 effcurve = Myeff P-TCurve = MyPvsT Daily = MyIrrad TDaily = Mytemp 
New PVSystem.PV1 phases=1 Bus1=983358bf46481.1.0 kV=0.22 kVA=20.36 Pmpp=20.36 conn=wye PF = 1 %cutin = 0.00005 %cutout = 0.00005 effcurve = Myeff P-TCurve = MyPvsT Daily = MyIrrad TDaily = Mytemp 
New PVSystem.PV2 phases=3 Bus1=94057bf42115.1.2.3.0 kV=0.22 kVA=6.37 Pmpp=6.37 conn=wye PF = 1 %cutin = 0.00005 %cutout = 0.00005 effcurve = Myeff P-TCurve = MyPvsT Daily = MyIrrad TDaily = Mytemp 
New PVSystem.PV3 phases=2 Bus1=94055bf42147.1.2.0 kV=0.22 kVA=6.46 Pmpp=6.46 conn=wye PF = 1 %cutin = 0.00005 %cutout = 0.00005 effcurve = Myeff P-TCurve = MyPvsT Daily = MyIrrad TDaily = Mytemp 
New PVSystem.PV4 phases=3 Bus1=94081bf42122.1.2.3.0 kV=0.22 kVA=17.69 Pmpp=17.69 conn=wye PF = 1 %cutin = 0.00005 %cutout = 0.00005 effcurve = Myeff P-TCurve = MyPvsT Daily = MyIrrad TDaily = Mytemp 
New PVSystem.PV5 phases=2 Bus1=12820193bf42135.2.3.0 kV=0.22 kVA=5.89 Pmpp=5.89 conn=wye PF = 1 %cutin = 0.00005 %cutout = 0.00005 effcurve = Myeff P-TCurve = MyPvsT Daily = MyIrrad TDaily = Mytemp 
New PVSystem.PV6 phases=2 Bus1=512419bf45838.3.1.0 kV=0.22 kVA=10.52 Pmpp=10.52 conn=wye PF = 1 %cutin = 0.00005 %cutout = 0.00005 effcurve = Myeff P-TCurve = MyPvsT Daily = MyIrrad TDaily = Mytemp 
New PVSystem.PV7 phases=2 Bus1=94073bf42142.3.1.0 kV=0.22 kVA=17.24 Pmpp=17.24 conn=wye PF = 1 %cutin = 0.00005 %cutout = 0.00005 effcurve = Myeff P-TCurve = MyPvsT Daily = MyIrrad TDaily = Mytemp 
New PVSystem.PV8 phases=2 Bus1=91011bf42130.3.1.0 kV=0.22 kVA=7.8 Pmpp=7.8 conn=wye PF = 1 %cutin = 0.00005 %cutout = 0.00005 effcurve = Myeff P-TCurve = MyPvsT Daily = MyIrrad TDaily = Mytemp 
New PVSystem.PV9 phases=2 Bus1=94074bf42137.2.3.0 kV=0.22 kVA=4.25 Pmpp=4.25 conn=wye PF = 1 %cutin = 0.00005 %cutout = 0.00005 effcurve = Myeff P-TCurve = MyPvsT Daily = MyIrrad TDaily = Mytemp 
New PVSystem.PV10 phases=2 Bus1=12820193bf42135.2.3.0 kV=0.22 kVA=5.12 Pmpp=5.12 conn=wye PF = 1 %cutin = 0.00005 %cutout = 0.00005 effcurve = Myeff P-TCurve = MyPvsT Daily = MyIrrad TDaily = Mytemp 
New PVSystem.PV11 phases=1 Bus1=104132278m784.1.0 kV=13.8 kVA=1930.42 Pmpp=1930.42 conn=wye PF = 1 %cutin = 0.00005 %cutout = 0.00005 effcurve = Myeff P-TCurve = MyPvsT Daily = MyIrrad TDaily = Mytemp 
New PVSystem.PV12 phases=3 Bus1=9685689bf46266.1.2.3.0 kV=0.22 kVA=38.89 Pmpp=38.89 conn=wye PF = 1 %cutin = 0.00005 %cutout = 0.00005 effcurve = Myeff P-TCurve = MyPvsT Daily = MyIrrad TDaily = Mytemp 
New PVSystem.PV13 phases=2 Bus1=94063bf42143.1.2.0 kV=0.22 kVA=2.41 Pmpp=2.41 conn=wye PF = 1 %cutin = 0.00005 %cutout = 0.00005 effcurve = Myeff P-TCurve = MyPvsT Daily = MyIrrad TDaily = Mytemp 
New PVSystem.PV14 phases=2 Bus1=94063bf42143.3.1.0 kV=0.22 kVA=6.12 Pmpp=6.12 conn=wye PF = 1 %cutin = 0.00005 %cutout = 0.00005 effcurve = Myeff P-TCurve = MyPvsT Daily = MyIrrad TDaily = Mytemp 
New PVSystem.PV15 phases=2 Bus1=94165bf42158.3.1.0 kV=0.22 kVA=1.0 Pmpp=1.0 conn=wye PF = 1 %cutin = 0.00005 %cutout = 0.00005 effcurve = Myeff P-TCurve = MyPvsT Daily = MyIrrad TDaily = Mytemp 
New PVSystem.PV16 phases=3 Bus1=91080bf42136.1.2.3.0 kV=0.22 kVA=13.52 Pmpp=13.52 conn=wye PF = 1 %cutin = 0.00005 %cutout = 0.00005 effcurve = Myeff P-TCurve = MyPvsT Daily = MyIrrad TDaily = Mytemp 
New PVSystem.PV17 phases=2 Bus1=13384834bf42159.1.2.0 kV=0.22 kVA=6.13 Pmpp=6.13 conn=wye PF = 1 %cutin = 0.00005 %cutout = 0.00005 effcurve = Myeff P-TCurve = MyPvsT Daily = MyIrrad TDaily = Mytemp 
New PVSystem.PV18 phases=2 Bus1=94144bf42161.1.2.0 kV=0.22 kVA=5.79 Pmpp=5.79 conn=wye PF = 1 %cutin = 0.00005 %cutout = 0.00005 effcurve = Myeff P-TCurve = MyPvsT Daily = MyIrrad TDaily = Mytemp 
New PVSystem.PV19 phases=3 Bus1=94133bf42166.1.2.3.0 kV=0.22 kVA=12.37 Pmpp=12.37 conn=wye PF = 1 %cutin = 0.00005 %cutout = 0.00005 effcurve = Myeff P-TCurve = MyPvsT Daily = MyIrrad TDaily = Mytemp 
New PVSystem.PV20 phases=2 Bus1=91189bf48508.1.2.0 kV=0.22 kVA=12.37 Pmpp=12.37 conn=wye PF = 1 %cutin = 0.00005 %cutout = 0.00005 effcurve = Myeff P-TCurve = MyPvsT Daily = MyIrrad TDaily = Mytemp 
New PVSystem.PV21 phases=3 Bus1=430966bf60875.1.2.3.0 kV=0.22 kVA=40.78 Pmpp=40.78 conn=wye PF = 1 %cutin = 0.00005 %cutout = 0.00005 effcurve = Myeff P-TCurve = MyPvsT Daily = MyIrrad TDaily = Mytemp 
New PVSystem.PV22 phases=3 Bus1=420218bf46261.1.2.3.0 kV=0.22 kVA=17.5 Pmpp=17.5 conn=wye PF = 1 %cutin = 0.00005 %cutout = 0.00005 effcurve = Myeff P-TCurve = MyPvsT Daily = MyIrrad TDaily = Mytemp 
New PVSystem.PV23 phases=3 Bus1=983382bf46485.1.2.3.0 kV=0.22 kVA=3.35 Pmpp=3.35 conn=wye PF = 1 %cutin = 0.00005 %cutout = 0.00005 effcurve = Myeff P-TCurve = MyPvsT Daily = MyIrrad TDaily = Mytemp 
New PVSystem.PV24 phases=3 Bus1=94048bf42116.1.2.3.0 kV=0.22 kVA=6.76 Pmpp=6.76 conn=wye PF = 1 %cutin = 0.00005 %cutout = 0.00005 effcurve = Myeff P-TCurve = MyPvsT Daily = MyIrrad TDaily = Mytemp 
New PVSystem.PV25 phases=3 Bus1=10305457m784.1.2.3 kV=13.8 kVA=132.88 Pmpp=132.88 conn=wye PF = 1 %cutin = 0.00005 %cutout = 0.00005 effcurve = Myeff P-TCurve = MyPvsT Daily = MyIrrad TDaily = Mytemp 
New PVSystem.PV26 phases=3 Bus1=94083bf42138.1.2.3.0 kV=0.22 kVA=12.1 Pmpp=12.1 conn=wye PF = 1 %cutin = 0.00005 %cutout = 0.00005 effcurve = Myeff P-TCurve = MyPvsT Daily = MyIrrad TDaily = Mytemp 
New PVSystem.PV27 phases=3 Bus1=104310440bf33308.1.2.3.0 kV=0.22 kVA=44.76 Pmpp=44.76 conn=wye PF = 1 %cutin = 0.00005 %cutout = 0.00005 effcurve = Myeff P-TCurve = MyPvsT Daily = MyIrrad TDaily = Mytemp 
New PVSystem.PV28 phases=3 Bus1=983358bf46481.1.2.3.0 kV=0.22 kVA=8.14 Pmpp=8.14 conn=wye PF = 1 %cutin = 0.00005 %cutout = 0.00005 effcurve = Myeff P-TCurve = MyPvsT Daily = MyIrrad TDaily = Mytemp 
New PVSystem.PV29 phases=2 Bus1=94043bf42113.1.2.0 kV=0.22 kVA=8.43 Pmpp=8.43 conn=wye PF = 1 %cutin = 0.00005 %cutout = 0.00005 effcurve = Myeff P-TCurve = MyPvsT Daily = MyIrrad TDaily = Mytemp 
New PVSystem.PV30 phases=2 Bus1=94144bf42161.2.3.0 kV=0.22 kVA=5.59 Pmpp=5.59 conn=wye PF = 1 %cutin = 0.00005 %cutout = 0.00005 effcurve = Myeff P-TCurve = MyPvsT Daily = MyIrrad TDaily = Mytemp 
New PVSystem.PV31 phases=2 Bus1=512419bf45838.1.2.0 kV=0.22 kVA=6.59 Pmpp=6.59 conn=wye PF = 1 %cutin = 0.00005 %cutout = 0.00005 effcurve = Myeff P-TCurve = MyPvsT Daily = MyIrrad TDaily = Mytemp 
New PVSystem.PV32 phases=3 Bus1=94037m784.1.2.3 kV=13.8 kVA=114.71 Pmpp=114.71 conn=wye PF = 1 %cutin = 0.00005 %cutout = 0.00005 effcurve = Myeff P-TCurve = MyPvsT Daily = MyIrrad TDaily = Mytemp 
New PVSystem.PV33 phases=2 Bus1=94176bf45366.1.2.0 kV=0.22 kVA=9.13 Pmpp=9.13 conn=wye PF = 1 %cutin = 0.00005 %cutout = 0.00005 effcurve = Myeff P-TCurve = MyPvsT Daily = MyIrrad TDaily = Mytemp 
New PVSystem.PV34 phases=2 Bus1=94133bf42166.1.2.0 kV=0.22 kVA=9.46 Pmpp=9.46 conn=wye PF = 1 %cutin = 0.00005 %cutout = 0.00005 effcurve = Myeff P-TCurve = MyPvsT Daily = MyIrrad TDaily = Mytemp 
New PVSystem.PV35 phases=2 Bus1=104301339bf33513.3.1.0 kV=0.22 kVA=10.94 Pmpp=10.94 conn=wye PF = 1 %cutin = 0.00005 %cutout = 0.00005 effcurve = Myeff P-TCurve = MyPvsT Daily = MyIrrad TDaily = Mytemp 
New PVSystem.PV36 phases=3 Bus1=94074bf42137.1.2.3.0 kV=0.22 kVA=19.92 Pmpp=19.92 conn=wye PF = 1 %cutin = 0.00005 %cutout = 0.00005 effcurve = Myeff P-TCurve = MyPvsT Daily = MyIrrad TDaily = Mytemp 
New PVSystem.PV37 phases=3 Bus1=94055bf42147.1.2.3.0 kV=0.22 kVA=8.25 Pmpp=8.25 conn=wye PF = 1 %cutin = 0.00005 %cutout = 0.00005 effcurve = Myeff P-TCurve = MyPvsT Daily = MyIrrad TDaily = Mytemp 
New PVSystem.PV38 phases=3 Bus1=13384834bf42159.1.2.3.0 kV=0.22 kVA=6.89 Pmpp=6.89 conn=wye PF = 1 %cutin = 0.00005 %cutout = 0.00005 effcurve = Myeff P-TCurve = MyPvsT Daily = MyIrrad TDaily = Mytemp 
New PVSystem.PV39 phases=2 Bus1=94073bf42142.1.2.0 kV=0.22 kVA=11.58 Pmpp=11.58 conn=wye PF = 1 %cutin = 0.00005 %cutout = 0.00005 effcurve = Myeff P-TCurve = MyPvsT Daily = MyIrrad TDaily = Mytemp 
New PVSystem.PV40 phases=3 Bus1=12931736m784.1.2.3 kV=13.8 kVA=639.12 Pmpp=639.12 conn=wye PF = 1 %cutin = 0.00005 %cutout = 0.00005 effcurve = Myeff P-TCurve = MyPvsT Daily = MyIrrad TDaily = Mytemp 
New PVSystem.PV41 phases=3 Bus1=94138bf42164.1.2.3.0 kV=0.22 kVA=7.84 Pmpp=7.84 conn=wye PF = 1 %cutin = 0.00005 %cutout = 0.00005 effcurve = Myeff P-TCurve = MyPvsT Daily = MyIrrad TDaily = Mytemp 
New PVSystem.PV42 phases=2 Bus1=94073bf42142.1.2.0 kV=0.22 kVA=10.36 Pmpp=10.36 conn=wye PF = 1 %cutin = 0.00005 %cutout = 0.00005 effcurve = Myeff P-TCurve = MyPvsT Daily = MyIrrad TDaily = Mytemp 
New PVSystem.PV43 phases=2 Bus1=94046bf42150.2.3.0 kV=0.22 kVA=3.02 Pmpp=3.02 conn=wye PF = 1 %cutin = 0.00005 %cutout = 0.00005 effcurve = Myeff P-TCurve = MyPvsT Daily = MyIrrad TDaily = Mytemp 
New PVSystem.PV44 phases=3 Bus1=94105bf42128.1.2.3.0 kV=0.22 kVA=5.37 Pmpp=5.37 conn=wye PF = 1 %cutin = 0.00005 %cutout = 0.00005 effcurve = Myeff P-TCurve = MyPvsT Daily = MyIrrad TDaily = Mytemp 
New PVSystem.PV45 phases=3 Bus1=94041bf42151.1.2.3.0 kV=0.22 kVA=49.85 Pmpp=49.85 conn=wye PF = 1 %cutin = 0.00005 %cutout = 0.00005 effcurve = Myeff P-TCurve = MyPvsT Daily = MyIrrad TDaily = Mytemp 
New PVSystem.PV46 phases=2 Bus1=91080bf42136.2.3.0 kV=0.22 kVA=1.74 Pmpp=1.74 conn=wye PF = 1 %cutin = 0.00005 %cutout = 0.00005 effcurve = Myeff P-TCurve = MyPvsT Daily = MyIrrad TDaily = Mytemp 
New PVSystem.PV47 phases=3 Bus1=420144bf54355.1.2.3.0 kV=0.22 kVA=7.4 Pmpp=7.4 conn=wye PF = 1 %cutin = 0.00005 %cutout = 0.00005 effcurve = Myeff P-TCurve = MyPvsT Daily = MyIrrad TDaily = Mytemp 
New PVSystem.PV48 phases=2 Bus1=94133bf42166.1.2.0 kV=0.22 kVA=7.03 Pmpp=7.03 conn=wye PF = 1 %cutin = 0.00005 %cutout = 0.00005 effcurve = Myeff P-TCurve = MyPvsT Daily = MyIrrad TDaily = Mytemp 
New PVSystem.PV49 phases=3 Bus1=91181bf42124.1.2.3.0 kV=0.22 kVA=6.61 Pmpp=6.61 conn=wye PF = 1 %cutin = 0.00005 %cutout = 0.00005 effcurve = Myeff P-TCurve = MyPvsT Daily = MyIrrad TDaily = Mytemp 
New PVSystem.PV50 phases=3 Bus1=94156bf42160.1.2.3.0 kV=0.22 kVA=2.26 Pmpp=2.26 conn=wye PF = 1 %cutin = 0.00005 %cutout = 0.00005 effcurve = Myeff P-TCurve = MyPvsT Daily = MyIrrad TDaily = Mytemp 
New PVSystem.PV51 phases=2 Bus1=94060bf42117.1.2.0 kV=0.22 kVA=13.73 Pmpp=13.73 conn=wye PF = 1 %cutin = 0.00005 %cutout = 0.00005 effcurve = Myeff P-TCurve = MyPvsT Daily = MyIrrad TDaily = Mytemp 
New PVSystem.PV52 phases=2 Bus1=983407bf46482.3.1.0 kV=0.22 kVA=12.9 Pmpp=12.9 conn=wye PF = 1 %cutin = 0.00005 %cutout = 0.00005 effcurve = Myeff P-TCurve = MyPvsT Daily = MyIrrad TDaily = Mytemp 
New PVSystem.PV53 phases=3 Bus1=104301361bf33515.1.2.3.0 kV=0.22 kVA=42.68 Pmpp=42.68 conn=wye PF = 1 %cutin = 0.00005 %cutout = 0.00005 effcurve = Myeff P-TCurve = MyPvsT Daily = MyIrrad TDaily = Mytemp 
New PVSystem.PV54 phases=3 Bus1=94144bf42161.1.2.3.0 kV=0.22 kVA=10.72 Pmpp=10.72 conn=wye PF = 1 %cutin = 0.00005 %cutout = 0.00005 effcurve = Myeff P-TCurve = MyPvsT Daily = MyIrrad TDaily = Mytemp 
New PVSystem.PV55 phases=3 Bus1=94070bf42141.1.2.3.0 kV=0.22 kVA=6.14 Pmpp=6.14 conn=wye PF = 1 %cutin = 0.00005 %cutout = 0.00005 effcurve = Myeff P-TCurve = MyPvsT Daily = MyIrrad TDaily = Mytemp 
New PVSystem.PV56 phases=2 Bus1=94074bf42137.3.1.0 kV=0.22 kVA=7.56 Pmpp=7.56 conn=wye PF = 1 %cutin = 0.00005 %cutout = 0.00005 effcurve = Myeff P-TCurve = MyPvsT Daily = MyIrrad TDaily = Mytemp 
New PVSystem.PV57 phases=3 Bus1=427692bf46256.1.2.3.0 kV=0.22 kVA=5.78 Pmpp=5.78 conn=wye PF = 1 %cutin = 0.00005 %cutout = 0.00005 effcurve = Myeff P-TCurve = MyPvsT Daily = MyIrrad TDaily = Mytemp 
New PVSystem.PV58 phases=3 Bus1=94046bf42150.1.2.3.0 kV=0.22 kVA=6.72 Pmpp=6.72 conn=wye PF = 1 %cutin = 0.00005 %cutout = 0.00005 effcurve = Myeff P-TCurve = MyPvsT Daily = MyIrrad TDaily = Mytemp 
New PVSystem.PV59 phases=1 Bus1=94074bf42137.1.0 kV=0.127 kVA=1.94 Pmpp=1.94 conn=wye PF = 1 %cutin = 0.00005 %cutout = 0.00005 effcurve = Myeff P-TCurve = MyPvsT Daily = MyIrrad TDaily = Mytemp 
New PVSystem.PV60 phases=3 Bus1=430906bf60970.1.2.3.0 kV=0.22 kVA=11.49 Pmpp=11.49 conn=wye PF = 1 %cutin = 0.00005 %cutout = 0.00005 effcurve = Myeff P-TCurve = MyPvsT Daily = MyIrrad TDaily = Mytemp 
New PVSystem.PV61 phases=2 Bus1=427692bf46256.1.2.0 kV=0.22 kVA=5.77 Pmpp=5.77 conn=wye PF = 1 %cutin = 0.00005 %cutout = 0.00005 effcurve = Myeff P-TCurve = MyPvsT Daily = MyIrrad TDaily = Mytemp 
New PVSystem.PV62 phases=3 Bus1=94144bf42161.1.2.3.0 kV=0.22 kVA=17.71 Pmpp=17.71 conn=wye PF = 1 %cutin = 0.00005 %cutout = 0.00005 effcurve = Myeff P-TCurve = MyPvsT Daily = MyIrrad TDaily = Mytemp 
New PVSystem.PV63 phases=3 Bus1=12820193bf42135.1.2.3.0 kV=0.22 kVA=25.92 Pmpp=25.92 conn=wye PF = 1 %cutin = 0.00005 %cutout = 0.00005 effcurve = Myeff P-TCurve = MyPvsT Daily = MyIrrad TDaily = Mytemp 
New PVSystem.PV64 phases=3 Bus1=94057bf42115.1.2.3.0 kV=0.22 kVA=0.52 Pmpp=0.52 conn=wye PF = 1 %cutin = 0.00005 %cutout = 0.00005 effcurve = Myeff P-TCurve = MyPvsT Daily = MyIrrad TDaily = Mytemp 
New PVSystem.PV65 phases=2 Bus1=94076bf42139.1.2.0 kV=0.22 kVA=4.92 Pmpp=4.92 conn=wye PF = 1 %cutin = 0.00005 %cutout = 0.00005 effcurve = Myeff P-TCurve = MyPvsT Daily = MyIrrad TDaily = Mytemp 
New PVSystem.PV66 phases=2 Bus1=94160bf42157.2.3.0 kV=0.22 kVA=7.78 Pmpp=7.78 conn=wye PF = 1 %cutin = 0.00005 %cutout = 0.00005 effcurve = Myeff P-TCurve = MyPvsT Daily = MyIrrad TDaily = Mytemp 
New PVSystem.PV67 phases=3 Bus1=12820193bf42135.1.2.3.0 kV=0.22 kVA=6.83 Pmpp=6.83 conn=wye PF = 1 %cutin = 0.00005 %cutout = 0.00005 effcurve = Myeff P-TCurve = MyPvsT Daily = MyIrrad TDaily = Mytemp 
New PVSystem.PV68 phases=3 Bus1=94138bf42164.1.2.3.0 kV=0.22 kVA=9.9 Pmpp=9.9 conn=wye PF = 1 %cutin = 0.00005 %cutout = 0.00005 effcurve = Myeff P-TCurve = MyPvsT Daily = MyIrrad TDaily = Mytemp 
New PVSystem.PV69 phases=2 Bus1=420218bf46261.1.2.0 kV=0.22 kVA=8.94 Pmpp=8.94 conn=wye PF = 1 %cutin = 0.00005 %cutout = 0.00005 effcurve = Myeff P-TCurve = MyPvsT Daily = MyIrrad TDaily = Mytemp 
New PVSystem.PV70 phases=3 Bus1=91011bf42130.1.2.3.0 kV=0.22 kVA=9.13 Pmpp=9.13 conn=wye PF = 1 %cutin = 0.00005 %cutout = 0.00005 effcurve = Myeff P-TCurve = MyPvsT Daily = MyIrrad TDaily = Mytemp 
New PVSystem.PV71 phases=2 Bus1=94036bf42153.1.2.0 kV=0.22 kVA=8.15 Pmpp=8.15 conn=wye PF = 1 %cutin = 0.00005 %cutout = 0.00005 effcurve = Myeff P-TCurve = MyPvsT Daily = MyIrrad TDaily = Mytemp 
New PVSystem.PV72 phases=3 Bus1=94057bf42115.1.2.3.0 kV=0.22 kVA=10.55 Pmpp=10.55 conn=wye PF = 1 %cutin = 0.00005 %cutout = 0.00005 effcurve = Myeff P-TCurve = MyPvsT Daily = MyIrrad TDaily = Mytemp 
New PVSystem.PV73 phases=3 Bus1=983393bf46484.1.2.3.0 kV=0.22 kVA=9.28 Pmpp=9.28 conn=wye PF = 1 %cutin = 0.00005 %cutout = 0.00005 effcurve = Myeff P-TCurve = MyPvsT Daily = MyIrrad TDaily = Mytemp 
New PVSystem.PV74 phases=2 Bus1=94074bf42137.1.2.0 kV=0.22 kVA=5.9 Pmpp=5.9 conn=wye PF = 1 %cutin = 0.00005 %cutout = 0.00005 effcurve = Myeff P-TCurve = MyPvsT Daily = MyIrrad TDaily = Mytemp 
New PVSystem.PV75 phases=2 Bus1=94055bf42147.1.2.0 kV=0.22 kVA=9.75 Pmpp=9.75 conn=wye PF = 1 %cutin = 0.00005 %cutout = 0.00005 effcurve = Myeff P-TCurve = MyPvsT Daily = MyIrrad TDaily = Mytemp 
New PVSystem.PV76 phases=2 Bus1=94098bf42132.1.2.0 kV=0.22 kVA=14.9 Pmpp=14.9 conn=wye PF = 1 %cutin = 0.00005 %cutout = 0.00005 effcurve = Myeff P-TCurve = MyPvsT Daily = MyIrrad TDaily = Mytemp 
New PVSystem.PV77 phases=3 Bus1=983393bf46484.1.2.3.0 kV=0.22 kVA=5.2 Pmpp=5.2 conn=wye PF = 1 %cutin = 0.00005 %cutout = 0.00005 effcurve = Myeff P-TCurve = MyPvsT Daily = MyIrrad TDaily = Mytemp 
New PVSystem.PV78 phases=2 Bus1=1446837bf46504.1.2.0 kV=0.22 kVA=9.22 Pmpp=9.22 conn=wye PF = 1 %cutin = 0.00005 %cutout = 0.00005 effcurve = Myeff P-TCurve = MyPvsT Daily = MyIrrad TDaily = Mytemp 
New PVSystem.PV79 phases=3 Bus1=94048bf42116.1.2.3.0 kV=0.22 kVA=4.89 Pmpp=4.89 conn=wye PF = 1 %cutin = 0.00005 %cutout = 0.00005 effcurve = Myeff P-TCurve = MyPvsT Daily = MyIrrad TDaily = Mytemp 
New PVSystem.PV80 phases=2 Bus1=94056bf42145.3.1.0 kV=0.22 kVA=8.25 Pmpp=8.25 conn=wye PF = 1 %cutin = 0.00005 %cutout = 0.00005 effcurve = Myeff P-TCurve = MyPvsT Daily = MyIrrad TDaily = Mytemp 
New PVSystem.PV81 phases=3 Bus1=94103bf42129.1.2.3.0 kV=0.22 kVA=54.57 Pmpp=54.57 conn=wye PF = 1 %cutin = 0.00005 %cutout = 0.00005 effcurve = Myeff P-TCurve = MyPvsT Daily = MyIrrad TDaily = Mytemp 
New PVSystem.PV82 phases=3 Bus1=94133bf42166.1.2.3.0 kV=0.22 kVA=11.46 Pmpp=11.46 conn=wye PF = 1 %cutin = 0.00005 %cutout = 0.00005 effcurve = Myeff P-TCurve = MyPvsT Daily = MyIrrad TDaily = Mytemp 
New PVSystem.PV83 phases=2 Bus1=440646bf42152.2.3.0 kV=0.22 kVA=3.1 Pmpp=3.1 conn=wye PF = 1 %cutin = 0.00005 %cutout = 0.00005 effcurve = Myeff P-TCurve = MyPvsT Daily = MyIrrad TDaily = Mytemp 
New PVSystem.PV84 phases=2 Bus1=983407bf46482.1.2.0 kV=0.22 kVA=11.99 Pmpp=11.99 conn=wye PF = 1 %cutin = 0.00005 %cutout = 0.00005 effcurve = Myeff P-TCurve = MyPvsT Daily = MyIrrad TDaily = Mytemp 
New PVSystem.PV85 phases=3 Bus1=13384834bf42159.1.2.3.0 kV=0.22 kVA=4.6 Pmpp=4.6 conn=wye PF = 1 %cutin = 0.00005 %cutout = 0.00005 effcurve = Myeff P-TCurve = MyPvsT Daily = MyIrrad TDaily = Mytemp 
New PVSystem.PV86 phases=3 Bus1=94054bf42148.1.2.3.0 kV=0.22 kVA=10.37 Pmpp=10.37 conn=wye PF = 1 %cutin = 0.00005 %cutout = 0.00005 effcurve = Myeff P-TCurve = MyPvsT Daily = MyIrrad TDaily = Mytemp 
New PVSystem.PV87 phases=3 Bus1=94165bf42158.1.2.3.0 kV=0.22 kVA=9.01 Pmpp=9.01 conn=wye PF = 1 %cutin = 0.00005 %cutout = 0.00005 effcurve = Myeff P-TCurve = MyPvsT Daily = MyIrrad TDaily = Mytemp 
New PVSystem.PV88 phases=3 Bus1=13384834bf42159.1.2.3.0 kV=0.22 kVA=6.39 Pmpp=6.39 conn=wye PF = 1 %cutin = 0.00005 %cutout = 0.00005 effcurve = Myeff P-TCurve = MyPvsT Daily = MyIrrad TDaily = Mytemp 
New PVSystem.PV89 phases=2 Bus1=91011bf42130.2.3.0 kV=0.22 kVA=5.48 Pmpp=5.48 conn=wye PF = 1 %cutin = 0.00005 %cutout = 0.00005 effcurve = Myeff P-TCurve = MyPvsT Daily = MyIrrad TDaily = Mytemp 
New PVSystem.PV90 phases=3 Bus1=94144bf42161.1.2.3.0 kV=0.22 kVA=5.54 Pmpp=5.54 conn=wye PF = 1 %cutin = 0.00005 %cutout = 0.00005 effcurve = Myeff P-TCurve = MyPvsT Daily = MyIrrad TDaily = Mytemp 
New PVSystem.PV91 phases=2 Bus1=94055bf42147.1.2.0 kV=0.22 kVA=7.29 Pmpp=7.29 conn=wye PF = 1 %cutin = 0.00005 %cutout = 0.00005 effcurve = Myeff P-TCurve = MyPvsT Daily = MyIrrad TDaily = Mytemp 
New PVSystem.PV92 phases=3 Bus1=104301347bf33514.1.2.3.0 kV=0.22 kVA=5.82 Pmpp=5.82 conn=wye PF = 1 %cutin = 0.00005 %cutout = 0.00005 effcurve = Myeff P-TCurve = MyPvsT Daily = MyIrrad TDaily = Mytemp 
New PVSystem.PV93 phases=2 Bus1=94083bf42138.1.2.0 kV=0.22 kVA=11.66 Pmpp=11.66 conn=wye PF = 1 %cutin = 0.00005 %cutout = 0.00005 effcurve = Myeff P-TCurve = MyPvsT Daily = MyIrrad TDaily = Mytemp 
New PVSystem.PV94 phases=3 Bus1=94129bf42165.1.2.3.0 kV=0.22 kVA=6.18 Pmpp=6.18 conn=wye PF = 1 %cutin = 0.00005 %cutout = 0.00005 effcurve = Myeff P-TCurve = MyPvsT Daily = MyIrrad TDaily = Mytemp 
New PVSystem.PV95 phases=2 Bus1=94074bf42137.1.2.0 kV=0.22 kVA=8.21 Pmpp=8.21 conn=wye PF = 1 %cutin = 0.00005 %cutout = 0.00005 effcurve = Myeff P-TCurve = MyPvsT Daily = MyIrrad TDaily = Mytemp 
New PVSystem.PV96 phases=1 Bus1=94036bf42153.1.0 kV=0.22 kVA=12.08 Pmpp=12.08 conn=wye PF = 1 %cutin = 0.00005 %cutout = 0.00005 effcurve = Myeff P-TCurve = MyPvsT Daily = MyIrrad TDaily = Mytemp 
New PVSystem.PV97 phases=3 Bus1=94063bf42143.1.2.3.0 kV=0.22 kVA=4.74 Pmpp=4.74 conn=wye PF = 1 %cutin = 0.00005 %cutout = 0.00005 effcurve = Myeff P-TCurve = MyPvsT Daily = MyIrrad TDaily = Mytemp 
New PVSystem.PV98 phases=2 Bus1=94144bf42161.1.2.0 kV=0.22 kVA=3.83 Pmpp=3.83 conn=wye PF = 1 %cutin = 0.00005 %cutout = 0.00005 effcurve = Myeff P-TCurve = MyPvsT Daily = MyIrrad TDaily = Mytemp 
New PVSystem.PV99 phases=2 Bus1=983382bf46485.2.3.0 kV=0.22 kVA=2.3 Pmpp=2.3 conn=wye PF = 1 %cutin = 0.00005 %cutout = 0.00005 effcurve = Myeff P-TCurve = MyPvsT Daily = MyIrrad TDaily = Mytemp 
New PVSystem.PV100 phases=3 Bus1=94063bf42143.1.2.3.0 kV=0.22 kVA=5.76 Pmpp=5.76 conn=wye PF = 1 %cutin = 0.00005 %cutout = 0.00005 effcurve = Myeff P-TCurve = MyPvsT Daily = MyIrrad TDaily = Mytemp 
New PVSystem.PV101 phases=3 Bus1=94081bf42122.1.2.3.0 kV=0.22 kVA=2.12 Pmpp=2.12 conn=wye PF = 1 %cutin = 0.00005 %cutout = 0.00005 effcurve = Myeff P-TCurve = MyPvsT Daily = MyIrrad TDaily = Mytemp 
New PVSystem.PV102 phases=3 Bus1=91080bf42136.1.2.3.0 kV=0.22 kVA=9.28 Pmpp=9.28 conn=wye PF = 1 %cutin = 0.00005 %cutout = 0.00005 effcurve = Myeff P-TCurve = MyPvsT Daily = MyIrrad TDaily = Mytemp 
New PVSystem.PV103 phases=2 Bus1=94067bf42119.2.3.0 kV=0.22 kVA=3.12 Pmpp=3.12 conn=wye PF = 1 %cutin = 0.00005 %cutout = 0.00005 effcurve = Myeff P-TCurve = MyPvsT Daily = MyIrrad TDaily = Mytemp 
New PVSystem.PV104 phases=3 Bus1=983401bf46483.1.2.3.0 kV=0.22 kVA=3.78 Pmpp=3.78 conn=wye PF = 1 %cutin = 0.00005 %cutout = 0.00005 effcurve = Myeff P-TCurve = MyPvsT Daily = MyIrrad TDaily = Mytemp 
New PVSystem.PV105 phases=2 Bus1=440646bf42152.1.2.0 kV=0.22 kVA=14.85 Pmpp=14.85 conn=wye PF = 1 %cutin = 0.00005 %cutout = 0.00005 effcurve = Myeff P-TCurve = MyPvsT Daily = MyIrrad TDaily = Mytemp 
New PVSystem.PV106 phases=2 Bus1=94171bf42156.1.2.0 kV=0.22 kVA=5.1 Pmpp=5.1 conn=wye PF = 1 %cutin = 0.00005 %cutout = 0.00005 effcurve = Myeff P-TCurve = MyPvsT Daily = MyIrrad TDaily = Mytemp 
New PVSystem.PV107 phases=2 Bus1=94036bf42153.1.2.0 kV=0.22 kVA=11.43 Pmpp=11.43 conn=wye PF = 1 %cutin = 0.00005 %cutout = 0.00005 effcurve = Myeff P-TCurve = MyPvsT Daily = MyIrrad TDaily = Mytemp 
New PVSystem.PV108 phases=3 Bus1=94057bf42115.1.2.3.0 kV=0.22 kVA=7.72 Pmpp=7.72 conn=wye PF = 1 %cutin = 0.00005 %cutout = 0.00005 effcurve = Myeff P-TCurve = MyPvsT Daily = MyIrrad TDaily = Mytemp 
New PVSystem.PV109 phases=3 Bus1=428555bf49151.1.2.3.0 kV=0.22 kVA=6.26 Pmpp=6.26 conn=wye PF = 1 %cutin = 0.00005 %cutout = 0.00005 effcurve = Myeff P-TCurve = MyPvsT Daily = MyIrrad TDaily = Mytemp 
New PVSystem.PV110 phases=2 Bus1=94054bf42148.3.1.0 kV=0.22 kVA=4.3 Pmpp=4.3 conn=wye PF = 1 %cutin = 0.00005 %cutout = 0.00005 effcurve = Myeff P-TCurve = MyPvsT Daily = MyIrrad TDaily = Mytemp 
New PVSystem.PV111 phases=3 Bus1=91417bf42149.1.2.3.0 kV=0.22 kVA=12.37 Pmpp=12.37 conn=wye PF = 1 %cutin = 0.00005 %cutout = 0.00005 effcurve = Myeff P-TCurve = MyPvsT Daily = MyIrrad TDaily = Mytemp 
New PVSystem.PV112 phases=3 Bus1=94165bf42158.1.2.3.0 kV=0.22 kVA=6.36 Pmpp=6.36 conn=wye PF = 1 %cutin = 0.00005 %cutout = 0.00005 effcurve = Myeff P-TCurve = MyPvsT Daily = MyIrrad TDaily = Mytemp 
New PVSystem.PV113 phases=3 Bus1=94036bf42153.1.2.3.0 kV=0.22 kVA=9.07 Pmpp=9.07 conn=wye PF = 1 %cutin = 0.00005 %cutout = 0.00005 effcurve = Myeff P-TCurve = MyPvsT Daily = MyIrrad TDaily = Mytemp 
New PVSystem.PV114 phases=3 Bus1=13438251bf60891.1.2.3.0 kV=0.22 kVA=24.69 Pmpp=24.69 conn=wye PF = 1 %cutin = 0.00005 %cutout = 0.00005 effcurve = Myeff P-TCurve = MyPvsT Daily = MyIrrad TDaily = Mytemp 
New PVSystem.PV115 phases=2 Bus1=94041bf42151.1.2.0 kV=0.22 kVA=15.42 Pmpp=15.42 conn=wye PF = 1 %cutin = 0.00005 %cutout = 0.00005 effcurve = Myeff P-TCurve = MyPvsT Daily = MyIrrad TDaily = Mytemp 
New PVSystem.PV116 phases=3 Bus1=94165bf42158.1.2.3.0 kV=0.22 kVA=6.62 Pmpp=6.62 conn=wye PF = 1 %cutin = 0.00005 %cutout = 0.00005 effcurve = Myeff P-TCurve = MyPvsT Daily = MyIrrad TDaily = Mytemp 
New PVSystem.PV117 phases=3 Bus1=94081bf42122.1.2.3.0 kV=0.22 kVA=9.01 Pmpp=9.01 conn=wye PF = 1 %cutin = 0.00005 %cutout = 0.00005 effcurve = Myeff P-TCurve = MyPvsT Daily = MyIrrad TDaily = Mytemp 
New PVSystem.PV118 phases=2 Bus1=91181bf42124.3.1.0 kV=0.22 kVA=4.92 Pmpp=4.92 conn=wye PF = 1 %cutin = 0.00005 %cutout = 0.00005 effcurve = Myeff P-TCurve = MyPvsT Daily = MyIrrad TDaily = Mytemp 
New PVSystem.PV119 phases=3 Bus1=91181bf42124.1.2.3.0 kV=0.22 kVA=16.47 Pmpp=16.47 conn=wye PF = 1 %cutin = 0.00005 %cutout = 0.00005 effcurve = Myeff P-TCurve = MyPvsT Daily = MyIrrad TDaily = Mytemp 
New PVSystem.PV120 phases=2 Bus1=9309181bf46615.1.2.0 kV=0.22 kVA=12.35 Pmpp=12.35 conn=wye PF = 1 %cutin = 0.00005 %cutout = 0.00005 effcurve = Myeff P-TCurve = MyPvsT Daily = MyIrrad TDaily = Mytemp 
New PVSystem.PV121 phases=3 Bus1=94059m784.1.2.3 kV=13.8 kVA=183.54 Pmpp=183.54 conn=wye PF = 1 %cutin = 0.00005 %cutout = 0.00005 effcurve = Myeff P-TCurve = MyPvsT Daily = MyIrrad TDaily = Mytemp 
New PVSystem.PV122 phases=2 Bus1=9559523bf46631.3.1.0 kV=0.22 kVA=19.12 Pmpp=19.12 conn=wye PF = 1 %cutin = 0.00005 %cutout = 0.00005 effcurve = Myeff P-TCurve = MyPvsT Daily = MyIrrad TDaily = Mytemp 
New PVSystem.PV123 phases=3 Bus1=94144bf42161.1.2.3.0 kV=0.22 kVA=10.7 Pmpp=10.7 conn=wye PF = 1 %cutin = 0.00005 %cutout = 0.00005 effcurve = Myeff P-TCurve = MyPvsT Daily = MyIrrad TDaily = Mytemp 
New PVSystem.PV124 phases=3 Bus1=427842bf46058.1.2.3.0 kV=0.22 kVA=10.11 Pmpp=10.11 conn=wye PF = 1 %cutin = 0.00005 %cutout = 0.00005 effcurve = Myeff P-TCurve = MyPvsT Daily = MyIrrad TDaily = Mytemp 
New PVSystem.PV125 phases=3 Bus1=94081bf42122.1.2.3.0 kV=0.22 kVA=44.82 Pmpp=44.82 conn=wye PF = 1 %cutin = 0.00005 %cutout = 0.00005 effcurve = Myeff P-TCurve = MyPvsT Daily = MyIrrad TDaily = Mytemp 
New PVSystem.PV126 phases=3 Bus1=420218bf46261.1.2.3.0 kV=0.22 kVA=9.14 Pmpp=9.14 conn=wye PF = 1 %cutin = 0.00005 %cutout = 0.00005 effcurve = Myeff P-TCurve = MyPvsT Daily = MyIrrad TDaily = Mytemp 
New PVSystem.PV127 phases=2 Bus1=94160bf42157.2.3.0 kV=0.22 kVA=13.38 Pmpp=13.38 conn=wye PF = 1 %cutin = 0.00005 %cutout = 0.00005 effcurve = Myeff P-TCurve = MyPvsT Daily = MyIrrad TDaily = Mytemp 
New PVSystem.PV128 phases=2 Bus1=94098bf42132.1.2.0 kV=0.22 kVA=14.73 Pmpp=14.73 conn=wye PF = 1 %cutin = 0.00005 %cutout = 0.00005 effcurve = Myeff P-TCurve = MyPvsT Daily = MyIrrad TDaily = Mytemp 
New PVSystem.PV129 phases=3 Bus1=91417bf42149.1.2.3.0 kV=0.22 kVA=13.44 Pmpp=13.44 conn=wye PF = 1 %cutin = 0.00005 %cutout = 0.00005 effcurve = Myeff P-TCurve = MyPvsT Daily = MyIrrad TDaily = Mytemp 
New PVSystem.PV130 phases=2 Bus1=427692bf46256.1.2.0 kV=0.22 kVA=4.55 Pmpp=4.55 conn=wye PF = 1 %cutin = 0.00005 %cutout = 0.00005 effcurve = Myeff P-TCurve = MyPvsT Daily = MyIrrad TDaily = Mytemp 
New PVSystem.PV131 phases=2 Bus1=94060bf42117.3.1.0 kV=0.22 kVA=15.82 Pmpp=15.82 conn=wye PF = 1 %cutin = 0.00005 %cutout = 0.00005 effcurve = Myeff P-TCurve = MyPvsT Daily = MyIrrad TDaily = Mytemp 
New PVSystem.PV132 phases=2 Bus1=94129bf42165.3.1.0 kV=0.22 kVA=9.72 Pmpp=9.72 conn=wye PF = 1 %cutin = 0.00005 %cutout = 0.00005 effcurve = Myeff P-TCurve = MyPvsT Daily = MyIrrad TDaily = Mytemp 
New PVSystem.PV133 phases=3 Bus1=104301374bf33516.1.2.3.0 kV=0.22 kVA=5.59 Pmpp=5.59 conn=wye PF = 1 %cutin = 0.00005 %cutout = 0.00005 effcurve = Myeff P-TCurve = MyPvsT Daily = MyIrrad TDaily = Mytemp 
New PVSystem.PV134 phases=3 Bus1=94054bf42148.1.2.3.0 kV=0.22 kVA=7.76 Pmpp=7.76 conn=wye PF = 1 %cutin = 0.00005 %cutout = 0.00005 effcurve = Myeff P-TCurve = MyPvsT Daily = MyIrrad TDaily = Mytemp 
New PVSystem.PV135 phases=2 Bus1=94063bf42143.3.1.0 kV=0.22 kVA=3.81 Pmpp=3.81 conn=wye PF = 1 %cutin = 0.00005 %cutout = 0.00005 effcurve = Myeff P-TCurve = MyPvsT Daily = MyIrrad TDaily = Mytemp 
New PVSystem.PV136 phases=2 Bus1=440646bf42152.2.3.0 kV=0.22 kVA=3.88 Pmpp=3.88 conn=wye PF = 1 %cutin = 0.00005 %cutout = 0.00005 effcurve = Myeff P-TCurve = MyPvsT Daily = MyIrrad TDaily = Mytemp 
New PVSystem.PV137 phases=3 Bus1=94176bf45366.1.2.3.0 kV=0.22 kVA=15.23 Pmpp=15.23 conn=wye PF = 1 %cutin = 0.00005 %cutout = 0.00005 effcurve = Myeff P-TCurve = MyPvsT Daily = MyIrrad TDaily = Mytemp 
New PVSystem.PV138 phases=2 Bus1=512419bf45838.2.3.0 kV=0.22 kVA=10.4 Pmpp=10.4 conn=wye PF = 1 %cutin = 0.00005 %cutout = 0.00005 effcurve = Myeff P-TCurve = MyPvsT Daily = MyIrrad TDaily = Mytemp 
New PVSystem.PV139 phases=2 Bus1=94176bf45366.1.2.0 kV=0.22 kVA=21.6 Pmpp=21.6 conn=wye PF = 1 %cutin = 0.00005 %cutout = 0.00005 effcurve = Myeff P-TCurve = MyPvsT Daily = MyIrrad TDaily = Mytemp 
New PVSystem.PV140 phases=3 Bus1=427692bf46256.1.2.3.0 kV=0.22 kVA=5.46 Pmpp=5.46 conn=wye PF = 1 %cutin = 0.00005 %cutout = 0.00005 effcurve = Myeff P-TCurve = MyPvsT Daily = MyIrrad TDaily = Mytemp 
New PVSystem.PV141 phases=3 Bus1=94057bf42115.1.2.3.0 kV=0.22 kVA=10.25 Pmpp=10.25 conn=wye PF = 1 %cutin = 0.00005 %cutout = 0.00005 effcurve = Myeff P-TCurve = MyPvsT Daily = MyIrrad TDaily = Mytemp 
New PVSystem.PV142 phases=2 Bus1=94067bf42119.3.1.0 kV=0.22 kVA=10.2 Pmpp=10.2 conn=wye PF = 1 %cutin = 0.00005 %cutout = 0.00005 effcurve = Myeff P-TCurve = MyPvsT Daily = MyIrrad TDaily = Mytemp 
New PVSystem.PV143 phases=3 Bus1=983358bf46481.1.2.3.0 kV=0.22 kVA=3.4 Pmpp=3.4 conn=wye PF = 1 %cutin = 0.00005 %cutout = 0.00005 effcurve = Myeff P-TCurve = MyPvsT Daily = MyIrrad TDaily = Mytemp 
New PVSystem.PV144 phases=2 Bus1=94076bf42139.3.1.0 kV=0.22 kVA=8.69 Pmpp=8.69 conn=wye PF = 1 %cutin = 0.00005 %cutout = 0.00005 effcurve = Myeff P-TCurve = MyPvsT Daily = MyIrrad TDaily = Mytemp 
New PVSystem.PV145 phases=2 Bus1=90904bf54869.2.3.0 kV=0.22 kVA=18.89 Pmpp=18.89 conn=wye PF = 1 %cutin = 0.00005 %cutout = 0.00005 effcurve = Myeff P-TCurve = MyPvsT Daily = MyIrrad TDaily = Mytemp 
New PVSystem.PV146 phases=2 Bus1=94042bf42111.1.2.0 kV=0.22 kVA=5.73 Pmpp=5.73 conn=wye PF = 1 %cutin = 0.00005 %cutout = 0.00005 effcurve = Myeff P-TCurve = MyPvsT Daily = MyIrrad TDaily = Mytemp 
New PVSystem.PV147 phases=2 Bus1=94063bf42143.1.2.0 kV=0.22 kVA=4.28 Pmpp=4.28 conn=wye PF = 1 %cutin = 0.00005 %cutout = 0.00005 effcurve = Myeff P-TCurve = MyPvsT Daily = MyIrrad TDaily = Mytemp 
New PVSystem.PV148 phases=2 Bus1=1446837bf46504.1.2.0 kV=0.22 kVA=6.55 Pmpp=6.55 conn=wye PF = 1 %cutin = 0.00005 %cutout = 0.00005 effcurve = Myeff P-TCurve = MyPvsT Daily = MyIrrad TDaily = Mytemp 
New PVSystem.PV149 phases=2 Bus1=420124bf46355.1.2.0 kV=0.22 kVA=31.05 Pmpp=31.05 conn=wye PF = 1 %cutin = 0.00005 %cutout = 0.00005 effcurve = Myeff P-TCurve = MyPvsT Daily = MyIrrad TDaily = Mytemp 
New PVSystem.PV150 phases=3 Bus1=94103bf42129.1.2.3.0 kV=0.22 kVA=12.25 Pmpp=12.25 conn=wye PF = 1 %cutin = 0.00005 %cutout = 0.00005 effcurve = Myeff P-TCurve = MyPvsT Daily = MyIrrad TDaily = Mytemp 
New PVSystem.PV151 phases=2 Bus1=94048bf42116.1.2.0 kV=0.22 kVA=2.11 Pmpp=2.11 conn=wye PF = 1 %cutin = 0.00005 %cutout = 0.00005 effcurve = Myeff P-TCurve = MyPvsT Daily = MyIrrad TDaily = Mytemp 
New PVSystem.PV152 phases=2 Bus1=512419bf45838.2.3.0 kV=0.22 kVA=11.87 Pmpp=11.87 conn=wye PF = 1 %cutin = 0.00005 %cutout = 0.00005 effcurve = Myeff P-TCurve = MyPvsT Daily = MyIrrad TDaily = Mytemp 
New PVSystem.PV153 phases=3 Bus1=427692bf46256.1.2.3.0 kV=0.22 kVA=4.01 Pmpp=4.01 conn=wye PF = 1 %cutin = 0.00005 %cutout = 0.00005 effcurve = Myeff P-TCurve = MyPvsT Daily = MyIrrad TDaily = Mytemp 
New PVSystem.PV154 phases=3 Bus1=12054628bf38422.1.2.3.0 kV=0.22 kVA=7.76 Pmpp=7.76 conn=wye PF = 1 %cutin = 0.00005 %cutout = 0.00005 effcurve = Myeff P-TCurve = MyPvsT Daily = MyIrrad TDaily = Mytemp 
New PVSystem.PV155 phases=3 Bus1=104301374bf33516.1.2.3.0 kV=0.22 kVA=4.83 Pmpp=4.83 conn=wye PF = 1 %cutin = 0.00005 %cutout = 0.00005 effcurve = Myeff P-TCurve = MyPvsT Daily = MyIrrad TDaily = Mytemp 
New PVSystem.PV156 phases=2 Bus1=440876bf33769.1.2.0 kV=0.22 kVA=6.58 Pmpp=6.58 conn=wye PF = 1 %cutin = 0.00005 %cutout = 0.00005 effcurve = Myeff P-TCurve = MyPvsT Daily = MyIrrad TDaily = Mytemp 
New PVSystem.PV157 phases=2 Bus1=94054bf42148.1.2.0 kV=0.22 kVA=10.55 Pmpp=10.55 conn=wye PF = 1 %cutin = 0.00005 %cutout = 0.00005 effcurve = Myeff P-TCurve = MyPvsT Daily = MyIrrad TDaily = Mytemp 
New PVSystem.PV158 phases=3 Bus1=91471bf38588.1.2.3.0 kV=0.22 kVA=22.0 Pmpp=22.0 conn=wye PF = 1 %cutin = 0.00005 %cutout = 0.00005 effcurve = Myeff P-TCurve = MyPvsT Daily = MyIrrad TDaily = Mytemp 
New PVSystem.PV159 phases=3 Bus1=94074bf42137.1.2.3.0 kV=0.22 kVA=11.98 Pmpp=11.98 conn=wye PF = 1 %cutin = 0.00005 %cutout = 0.00005 effcurve = Myeff P-TCurve = MyPvsT Daily = MyIrrad TDaily = Mytemp 
New PVSystem.PV160 phases=2 Bus1=440646bf42152.1.2.0 kV=0.22 kVA=2.43 Pmpp=2.43 conn=wye PF = 1 %cutin = 0.00005 %cutout = 0.00005 effcurve = Myeff P-TCurve = MyPvsT Daily = MyIrrad TDaily = Mytemp 
New PVSystem.PV161 phases=2 Bus1=420124bf46355.2.3.0 kV=0.22 kVA=12.55 Pmpp=12.55 conn=wye PF = 1 %cutin = 0.00005 %cutout = 0.00005 effcurve = Myeff P-TCurve = MyPvsT Daily = MyIrrad TDaily = Mytemp 
New PVSystem.PV162 phases=3 Bus1=94057bf42115.1.2.3.0 kV=0.22 kVA=24.6 Pmpp=24.6 conn=wye PF = 1 %cutin = 0.00005 %cutout = 0.00005 effcurve = Myeff P-TCurve = MyPvsT Daily = MyIrrad TDaily = Mytemp 
New PVSystem.PV163 phases=3 Bus1=94060bf42117.1.2.3.0 kV=0.22 kVA=4.66 Pmpp=4.66 conn=wye PF = 1 %cutin = 0.00005 %cutout = 0.00005 effcurve = Myeff P-TCurve = MyPvsT Daily = MyIrrad TDaily = Mytemp 
New PVSystem.PV164 phases=2 Bus1=9309181bf46615.3.1.0 kV=0.22 kVA=13.18 Pmpp=13.18 conn=wye PF = 1 %cutin = 0.00005 %cutout = 0.00005 effcurve = Myeff P-TCurve = MyPvsT Daily = MyIrrad TDaily = Mytemp 
New PVSystem.PV165 phases=2 Bus1=94096bf42133.2.3.0 kV=0.22 kVA=3.22 Pmpp=3.22 conn=wye PF = 1 %cutin = 0.00005 %cutout = 0.00005 effcurve = Myeff P-TCurve = MyPvsT Daily = MyIrrad TDaily = Mytemp 
New PVSystem.PV166 phases=2 Bus1=94057bf42115.2.3.0 kV=0.22 kVA=6.83 Pmpp=6.83 conn=wye PF = 1 %cutin = 0.00005 %cutout = 0.00005 effcurve = Myeff P-TCurve = MyPvsT Daily = MyIrrad TDaily = Mytemp 
New PVSystem.PV167 phases=2 Bus1=94073bf42142.2.3.0 kV=0.22 kVA=6.63 Pmpp=6.63 conn=wye PF = 1 %cutin = 0.00005 %cutout = 0.00005 effcurve = Myeff P-TCurve = MyPvsT Daily = MyIrrad TDaily = Mytemp 
New PVSystem.PV168 phases=2 Bus1=94144bf42161.3.1.0 kV=0.22 kVA=5.92 Pmpp=5.92 conn=wye PF = 1 %cutin = 0.00005 %cutout = 0.00005 effcurve = Myeff P-TCurve = MyPvsT Daily = MyIrrad TDaily = Mytemp 
New PVSystem.PV169 phases=3 Bus1=91011bf42130.1.2.3.0 kV=0.22 kVA=8.38 Pmpp=8.38 conn=wye PF = 1 %cutin = 0.00005 %cutout = 0.00005 effcurve = Myeff P-TCurve = MyPvsT Daily = MyIrrad TDaily = Mytemp 
New PVSystem.PV170 phases=3 Bus1=94046bf42150.1.2.3.0 kV=0.22 kVA=11.93 Pmpp=11.93 conn=wye PF = 1 %cutin = 0.00005 %cutout = 0.00005 effcurve = Myeff P-TCurve = MyPvsT Daily = MyIrrad TDaily = Mytemp 
New PVSystem.PV171 phases=3 Bus1=94165bf42158.1.2.3.0 kV=0.38 kVA=2.59 Pmpp=2.59 conn=wye PF = 1 %cutin = 0.00005 %cutout = 0.00005 effcurve = Myeff P-TCurve = MyPvsT Daily = MyIrrad TDaily = Mytemp 
New PVSystem.PV172 phases=3 Bus1=420124bf46355.1.2.3.0 kV=0.22 kVA=18.6 Pmpp=18.6 conn=wye PF = 1 %cutin = 0.00005 %cutout = 0.00005 effcurve = Myeff P-TCurve = MyPvsT Daily = MyIrrad TDaily = Mytemp 
New PVSystem.PV173 phases=2 Bus1=440646bf42152.1.2.0 kV=0.22 kVA=3.71 Pmpp=3.71 conn=wye PF = 1 %cutin = 0.00005 %cutout = 0.00005 effcurve = Myeff P-TCurve = MyPvsT Daily = MyIrrad TDaily = Mytemp 
New PVSystem.PV174 phases=2 Bus1=94067bf42119.2.3.0 kV=0.22 kVA=4.05 Pmpp=4.05 conn=wye PF = 1 %cutin = 0.00005 %cutout = 0.00005 effcurve = Myeff P-TCurve = MyPvsT Daily = MyIrrad TDaily = Mytemp 
New PVSystem.PV175 phases=3 Bus1=983401bf46483.1.2.3.0 kV=0.22 kVA=9.69 Pmpp=9.69 conn=wye PF = 1 %cutin = 0.00005 %cutout = 0.00005 effcurve = Myeff P-TCurve = MyPvsT Daily = MyIrrad TDaily = Mytemp 
New PVSystem.PV176 phases=3 Bus1=427842bf46058.1.2.3.0 kV=0.22 kVA=10.97 Pmpp=10.97 conn=wye PF = 1 %cutin = 0.00005 %cutout = 0.00005 effcurve = Myeff P-TCurve = MyPvsT Daily = MyIrrad TDaily = Mytemp 
New PVSystem.PV177 phases=2 Bus1=94042bf42111.2.3.0 kV=0.22 kVA=5.73 Pmpp=5.73 conn=wye PF = 1 %cutin = 0.00005 %cutout = 0.00005 effcurve = Myeff P-TCurve = MyPvsT Daily = MyIrrad TDaily = Mytemp 
New PVSystem.PV178 phases=3 Bus1=94105bf42128.1.2.3.0 kV=0.22 kVA=5.53 Pmpp=5.53 conn=wye PF = 1 %cutin = 0.00005 %cutout = 0.00005 effcurve = Myeff P-TCurve = MyPvsT Daily = MyIrrad TDaily = Mytemp 
New PVSystem.PV179 phases=2 Bus1=94073bf42142.2.3.0 kV=0.22 kVA=7.96 Pmpp=7.96 conn=wye PF = 1 %cutin = 0.00005 %cutout = 0.00005 effcurve = Myeff P-TCurve = MyPvsT Daily = MyIrrad TDaily = Mytemp 
New PVSystem.PV180 phases=3 Bus1=94077bf44202.1.2.3.0 kV=0.22 kVA=18.1 Pmpp=18.1 conn=wye PF = 1 %cutin = 0.00005 %cutout = 0.00005 effcurve = Myeff P-TCurve = MyPvsT Daily = MyIrrad TDaily = Mytemp 
New PVSystem.PV181 phases=2 Bus1=94048bf42116.3.1.0 kV=0.22 kVA=9.25 Pmpp=9.25 conn=wye PF = 1 %cutin = 0.00005 %cutout = 0.00005 effcurve = Myeff P-TCurve = MyPvsT Daily = MyIrrad TDaily = Mytemp 
New PVSystem.PV182 phases=2 Bus1=94074bf42137.2.3.0 kV=0.22 kVA=6.39 Pmpp=6.39 conn=wye PF = 1 %cutin = 0.00005 %cutout = 0.00005 effcurve = Myeff P-TCurve = MyPvsT Daily = MyIrrad TDaily = Mytemp 
New PVSystem.PV183 phases=3 Bus1=94054bf42148.1.2.3.0 kV=0.22 kVA=17.75 Pmpp=17.75 conn=wye PF = 1 %cutin = 0.00005 %cutout = 0.00005 effcurve = Myeff P-TCurve = MyPvsT Daily = MyIrrad TDaily = Mytemp 
New PVSystem.PV184 phases=3 Bus1=104301361bf33515.1.2.3.0 kV=0.22 kVA=17.8 Pmpp=17.8 conn=wye PF = 1 %cutin = 0.00005 %cutout = 0.00005 effcurve = Myeff P-TCurve = MyPvsT Daily = MyIrrad TDaily = Mytemp 
New PVSystem.PV185 phases=2 Bus1=94054bf42148.1.2.0 kV=0.22 kVA=6.86 Pmpp=6.86 conn=wye PF = 1 %cutin = 0.00005 %cutout = 0.00005 effcurve = Myeff P-TCurve = MyPvsT Daily = MyIrrad TDaily = Mytemp 
New PVSystem.PV186 phases=2 Bus1=94083bf42138.1.2.0 kV=0.22 kVA=11.66 Pmpp=11.66 conn=wye PF = 1 %cutin = 0.00005 %cutout = 0.00005 effcurve = Myeff P-TCurve = MyPvsT Daily = MyIrrad TDaily = Mytemp 
New PVSystem.PV187 phases=3 Bus1=94041bf42151.1.2.3.0 kV=0.22 kVA=112.59 Pmpp=112.59 conn=wye PF = 1 %cutin = 0.00005 %cutout = 0.00005 effcurve = Myeff P-TCurve = MyPvsT Daily = MyIrrad TDaily = Mytemp 
New PVSystem.PV188 phases=3 Bus1=427692bf46256.1.2.3.0 kV=0.22 kVA=14.33 Pmpp=14.33 conn=wye PF = 1 %cutin = 0.00005 %cutout = 0.00005 effcurve = Myeff P-TCurve = MyPvsT Daily = MyIrrad TDaily = Mytemp 
New PVSystem.PV189 phases=2 Bus1=94171bf42156.2.3.0 kV=0.22 kVA=2.85 Pmpp=2.85 conn=wye PF = 1 %cutin = 0.00005 %cutout = 0.00005 effcurve = Myeff P-TCurve = MyPvsT Daily = MyIrrad TDaily = Mytemp 
New PVSystem.PV190 phases=3 Bus1=983358bf46481.1.2.3.0 kV=0.22 kVA=8.52 Pmpp=8.52 conn=wye PF = 1 %cutin = 0.00005 %cutout = 0.00005 effcurve = Myeff P-TCurve = MyPvsT Daily = MyIrrad TDaily = Mytemp 
New PVSystem.PV191 phases=1 Bus1=430966bf60875.2.0 kV=0.127 kVA=43.58 Pmpp=43.58 conn=wye PF = 1 %cutin = 0.00005 %cutout = 0.00005 effcurve = Myeff P-TCurve = MyPvsT Daily = MyIrrad TDaily = Mytemp 
New PVSystem.PV192 phases=2 Bus1=94101bf42127.1.2.0 kV=0.22 kVA=2.94 Pmpp=2.94 conn=wye PF = 1 %cutin = 0.00005 %cutout = 0.00005 effcurve = Myeff P-TCurve = MyPvsT Daily = MyIrrad TDaily = Mytemp 
New PVSystem.PV193 phases=2 Bus1=91189bf48508.1.2.0 kV=0.22 kVA=13.7 Pmpp=13.7 conn=wye PF = 1 %cutin = 0.00005 %cutout = 0.00005 effcurve = Myeff P-TCurve = MyPvsT Daily = MyIrrad TDaily = Mytemp 
New PVSystem.PV194 phases=3 Bus1=94054bf42148.1.2.3.0 kV=0.22 kVA=32.0 Pmpp=32.0 conn=wye PF = 1 %cutin = 0.00005 %cutout = 0.00005 effcurve = Myeff P-TCurve = MyPvsT Daily = MyIrrad TDaily = Mytemp 
New PVSystem.PV195 phases=3 Bus1=420124bf46355.1.2.3.0 kV=0.22 kVA=57.26 Pmpp=57.26 conn=wye PF = 1 %cutin = 0.00005 %cutout = 0.00005 effcurve = Myeff P-TCurve = MyPvsT Daily = MyIrrad TDaily = Mytemp 
New PVSystem.PV196 phases=2 Bus1=1446837bf46504.1.2.0 kV=0.22 kVA=9.22 Pmpp=9.22 conn=wye PF = 1 %cutin = 0.00005 %cutout = 0.00005 effcurve = Myeff P-TCurve = MyPvsT Daily = MyIrrad TDaily = Mytemp 
New PVSystem.PV197 phases=3 Bus1=420218bf46261.1.2.3.0 kV=0.22 kVA=3.63 Pmpp=3.63 conn=wye PF = 1 %cutin = 0.00005 %cutout = 0.00005 effcurve = Myeff P-TCurve = MyPvsT Daily = MyIrrad TDaily = Mytemp 
New PVSystem.PV198 phases=2 Bus1=1446837bf46504.1.2.0 kV=0.22 kVA=9.22 Pmpp=9.22 conn=wye PF = 1 %cutin = 0.00005 %cutout = 0.00005 effcurve = Myeff P-TCurve = MyPvsT Daily = MyIrrad TDaily = Mytemp 
New PVSystem.PV199 phases=3 Bus1=91080bf42136.1.2.3.0 kV=0.22 kVA=12.07 Pmpp=12.07 conn=wye PF = 1 %cutin = 0.00005 %cutout = 0.00005 effcurve = Myeff P-TCurve = MyPvsT Daily = MyIrrad TDaily = Mytemp 
New PVSystem.PV200 phases=2 Bus1=420124bf46355.3.1.0 kV=0.22 kVA=10.58 Pmpp=10.58 conn=wye PF = 1 %cutin = 0.00005 %cutout = 0.00005 effcurve = Myeff P-TCurve = MyPvsT Daily = MyIrrad TDaily = Mytemp 
New PVSystem.PV201 phases=3 Bus1=983358bf46481.1.2.3.0 kV=0.22 kVA=6.04 Pmpp=6.04 conn=wye PF = 1 %cutin = 0.00005 %cutout = 0.00005 effcurve = Myeff P-TCurve = MyPvsT Daily = MyIrrad TDaily = Mytemp 
New PVSystem.PV202 phases=2 Bus1=94036bf42153.2.3.0 kV=0.22 kVA=7.34 Pmpp=7.34 conn=wye PF = 1 %cutin = 0.00005 %cutout = 0.00005 effcurve = Myeff P-TCurve = MyPvsT Daily = MyIrrad TDaily = Mytemp 
New PVSystem.PV203 phases=3 Bus1=94073bf42142.1.2.3.0 kV=0.22 kVA=4.64 Pmpp=4.64 conn=wye PF = 1 %cutin = 0.00005 %cutout = 0.00005 effcurve = Myeff P-TCurve = MyPvsT Daily = MyIrrad TDaily = Mytemp 
New PVSystem.PV204 phases=3 Bus1=983401m784.1.2.3 kV=13.8 kVA=35.27 Pmpp=35.27 conn=wye PF = 1 %cutin = 0.00005 %cutout = 0.00005 effcurve = Myeff P-TCurve = MyPvsT Daily = MyIrrad TDaily = Mytemp 
New PVSystem.PV205 phases=3 Bus1=94096bf42133.1.2.3.0 kV=0.22 kVA=14.08 Pmpp=14.08 conn=wye PF = 1 %cutin = 0.00005 %cutout = 0.00005 effcurve = Myeff P-TCurve = MyPvsT Daily = MyIrrad TDaily = Mytemp 
New PVSystem.PV206 phases=2 Bus1=13384834bf42159.1.2.0 kV=0.22 kVA=2.67 Pmpp=2.67 conn=wye PF = 1 %cutin = 0.00005 %cutout = 0.00005 effcurve = Myeff P-TCurve = MyPvsT Daily = MyIrrad TDaily = Mytemp 
New PVSystem.PV207 phases=3 Bus1=94063bf42143.1.2.3.0 kV=0.22 kVA=6.44 Pmpp=6.44 conn=wye PF = 1 %cutin = 0.00005 %cutout = 0.00005 effcurve = Myeff P-TCurve = MyPvsT Daily = MyIrrad TDaily = Mytemp 
